
---------- Begin Simulation Statistics ----------
sim_seconds                                  0.046677                       # Number of seconds simulated
sim_ticks                                 46676875401                       # Number of ticks simulated
final_tick                                46676875401                       # Number of ticks from beginning of simulation (restored from checkpoints and never reset)
sim_freq                                 1000000000000                       # Frequency of simulated ticks
host_inst_rate                                 641312                       # Simulator instruction rate (inst/s)
host_op_rate                                  1333334                       # Simulator op (including micro ops) rate (op/s)
host_tick_rate                             1109646641                       # Simulator tick rate (ticks/s)
host_mem_usage                                2184588                       # Number of bytes of host memory used
host_seconds                                    42.06                       # Real time elapsed on the host
sim_insts                                    26976551                       # Number of instructions simulated
sim_ops                                      56086193                       # Number of ops (including micro ops) simulated
system.clk_domain.voltage_domain.voltage            1                       # Voltage in Volts
system.clk_domain.clock                           333                       # Clock period in ticks
system.mem_ctr1.pwrStateResidencyTicks::UNDEFINED  46676875401                       # Cumulative time (in ticks) in various power states
system.mem_ctr1.bytes_read::cpu.inst            49792                       # Number of bytes read from this memory
system.mem_ctr1.bytes_read::cpu.data          1099456                       # Number of bytes read from this memory
system.mem_ctr1.bytes_read::total             1149248                       # Number of bytes read from this memory
system.mem_ctr1.bytes_inst_read::cpu.inst        49792                       # Number of instructions bytes read from this memory
system.mem_ctr1.bytes_inst_read::total          49792                       # Number of instructions bytes read from this memory
system.mem_ctr1.num_reads::cpu.inst               778                       # Number of read requests responded to by this memory
system.mem_ctr1.num_reads::cpu.data             17179                       # Number of read requests responded to by this memory
system.mem_ctr1.num_reads::total                17957                       # Number of read requests responded to by this memory
system.mem_ctr1.bw_read::cpu.inst             1066738                       # Total read bandwidth from this memory (bytes/s)
system.mem_ctr1.bw_read::cpu.data            23554619                       # Total read bandwidth from this memory (bytes/s)
system.mem_ctr1.bw_read::total               24621357                       # Total read bandwidth from this memory (bytes/s)
system.mem_ctr1.bw_inst_read::cpu.inst        1066738                       # Instruction read bandwidth from this memory (bytes/s)
system.mem_ctr1.bw_inst_read::total           1066738                       # Instruction read bandwidth from this memory (bytes/s)
system.mem_ctr1.bw_total::cpu.inst            1066738                       # Total bandwidth to/from this memory (bytes/s)
system.mem_ctr1.bw_total::cpu.data           23554619                       # Total bandwidth to/from this memory (bytes/s)
system.mem_ctr1.bw_total::total              24621357                       # Total bandwidth to/from this memory (bytes/s)
system.mem_ctr1.readReqs                        17957                       # Number of read requests accepted
system.mem_ctr1.writeReqs                           0                       # Number of write requests accepted
system.mem_ctr1.readBursts                      17957                       # Number of DRAM read bursts, including those serviced by the write queue
system.mem_ctr1.writeBursts                         0                       # Number of DRAM write bursts, including those merged in the write queue
system.mem_ctr1.bytesReadDRAM                 1149248                       # Total number of bytes read from DRAM
system.mem_ctr1.bytesReadWrQ                        0                       # Total number of bytes read from write queue
system.mem_ctr1.bytesWritten                        0                       # Total number of bytes written to DRAM
system.mem_ctr1.bytesReadSys                  1149248                       # Total read bytes from the system interface side
system.mem_ctr1.bytesWrittenSys                     0                       # Total written bytes from the system interface side
system.mem_ctr1.servicedByWrQ                       0                       # Number of DRAM read bursts serviced by the write queue
system.mem_ctr1.mergedWrBursts                      0                       # Number of DRAM write bursts merged with an existing one
system.mem_ctr1.neitherReadNorWriteReqs             0                       # Number of requests that are neither read nor write
system.mem_ctr1.perBankRdBursts::0                938                       # Per bank write bursts
system.mem_ctr1.perBankRdBursts::1               1035                       # Per bank write bursts
system.mem_ctr1.perBankRdBursts::2               1126                       # Per bank write bursts
system.mem_ctr1.perBankRdBursts::3               1234                       # Per bank write bursts
system.mem_ctr1.perBankRdBursts::4               1315                       # Per bank write bursts
system.mem_ctr1.perBankRdBursts::5               1202                       # Per bank write bursts
system.mem_ctr1.perBankRdBursts::6               1199                       # Per bank write bursts
system.mem_ctr1.perBankRdBursts::7               1215                       # Per bank write bursts
system.mem_ctr1.perBankRdBursts::8               1232                       # Per bank write bursts
system.mem_ctr1.perBankRdBursts::9               1192                       # Per bank write bursts
system.mem_ctr1.perBankRdBursts::10              1132                       # Per bank write bursts
system.mem_ctr1.perBankRdBursts::11               969                       # Per bank write bursts
system.mem_ctr1.perBankRdBursts::12              1003                       # Per bank write bursts
system.mem_ctr1.perBankRdBursts::13              1053                       # Per bank write bursts
system.mem_ctr1.perBankRdBursts::14              1135                       # Per bank write bursts
system.mem_ctr1.perBankRdBursts::15               977                       # Per bank write bursts
system.mem_ctr1.perBankWrBursts::0                  0                       # Per bank write bursts
system.mem_ctr1.perBankWrBursts::1                  0                       # Per bank write bursts
system.mem_ctr1.perBankWrBursts::2                  0                       # Per bank write bursts
system.mem_ctr1.perBankWrBursts::3                  0                       # Per bank write bursts
system.mem_ctr1.perBankWrBursts::4                  0                       # Per bank write bursts
system.mem_ctr1.perBankWrBursts::5                  0                       # Per bank write bursts
system.mem_ctr1.perBankWrBursts::6                  0                       # Per bank write bursts
system.mem_ctr1.perBankWrBursts::7                  0                       # Per bank write bursts
system.mem_ctr1.perBankWrBursts::8                  0                       # Per bank write bursts
system.mem_ctr1.perBankWrBursts::9                  0                       # Per bank write bursts
system.mem_ctr1.perBankWrBursts::10                 0                       # Per bank write bursts
system.mem_ctr1.perBankWrBursts::11                 0                       # Per bank write bursts
system.mem_ctr1.perBankWrBursts::12                 0                       # Per bank write bursts
system.mem_ctr1.perBankWrBursts::13                 0                       # Per bank write bursts
system.mem_ctr1.perBankWrBursts::14                 0                       # Per bank write bursts
system.mem_ctr1.perBankWrBursts::15                 0                       # Per bank write bursts
system.mem_ctr1.numRdRetry                          0                       # Number of times read queue was full causing retry
system.mem_ctr1.numWrRetry                          0                       # Number of times write queue was full causing retry
system.mem_ctr1.totGap                    46676780829                       # Total gap between requests
system.mem_ctr1.readPktSize::0                      0                       # Read request sizes (log2)
system.mem_ctr1.readPktSize::1                      0                       # Read request sizes (log2)
system.mem_ctr1.readPktSize::2                      0                       # Read request sizes (log2)
system.mem_ctr1.readPktSize::3                      0                       # Read request sizes (log2)
system.mem_ctr1.readPktSize::4                      0                       # Read request sizes (log2)
system.mem_ctr1.readPktSize::5                      0                       # Read request sizes (log2)
system.mem_ctr1.readPktSize::6                  17957                       # Read request sizes (log2)
system.mem_ctr1.writePktSize::0                     0                       # Write request sizes (log2)
system.mem_ctr1.writePktSize::1                     0                       # Write request sizes (log2)
system.mem_ctr1.writePktSize::2                     0                       # Write request sizes (log2)
system.mem_ctr1.writePktSize::3                     0                       # Write request sizes (log2)
system.mem_ctr1.writePktSize::4                     0                       # Write request sizes (log2)
system.mem_ctr1.writePktSize::5                     0                       # Write request sizes (log2)
system.mem_ctr1.writePktSize::6                     0                       # Write request sizes (log2)
system.mem_ctr1.rdQLenPdf::0                    17957                       # What read queue length does an incoming req see
system.mem_ctr1.rdQLenPdf::1                        0                       # What read queue length does an incoming req see
system.mem_ctr1.rdQLenPdf::2                        0                       # What read queue length does an incoming req see
system.mem_ctr1.rdQLenPdf::3                        0                       # What read queue length does an incoming req see
system.mem_ctr1.rdQLenPdf::4                        0                       # What read queue length does an incoming req see
system.mem_ctr1.rdQLenPdf::5                        0                       # What read queue length does an incoming req see
system.mem_ctr1.rdQLenPdf::6                        0                       # What read queue length does an incoming req see
system.mem_ctr1.rdQLenPdf::7                        0                       # What read queue length does an incoming req see
system.mem_ctr1.rdQLenPdf::8                        0                       # What read queue length does an incoming req see
system.mem_ctr1.rdQLenPdf::9                        0                       # What read queue length does an incoming req see
system.mem_ctr1.rdQLenPdf::10                       0                       # What read queue length does an incoming req see
system.mem_ctr1.rdQLenPdf::11                       0                       # What read queue length does an incoming req see
system.mem_ctr1.rdQLenPdf::12                       0                       # What read queue length does an incoming req see
system.mem_ctr1.rdQLenPdf::13                       0                       # What read queue length does an incoming req see
system.mem_ctr1.rdQLenPdf::14                       0                       # What read queue length does an incoming req see
system.mem_ctr1.rdQLenPdf::15                       0                       # What read queue length does an incoming req see
system.mem_ctr1.rdQLenPdf::16                       0                       # What read queue length does an incoming req see
system.mem_ctr1.rdQLenPdf::17                       0                       # What read queue length does an incoming req see
system.mem_ctr1.rdQLenPdf::18                       0                       # What read queue length does an incoming req see
system.mem_ctr1.rdQLenPdf::19                       0                       # What read queue length does an incoming req see
system.mem_ctr1.rdQLenPdf::20                       0                       # What read queue length does an incoming req see
system.mem_ctr1.rdQLenPdf::21                       0                       # What read queue length does an incoming req see
system.mem_ctr1.rdQLenPdf::22                       0                       # What read queue length does an incoming req see
system.mem_ctr1.rdQLenPdf::23                       0                       # What read queue length does an incoming req see
system.mem_ctr1.rdQLenPdf::24                       0                       # What read queue length does an incoming req see
system.mem_ctr1.rdQLenPdf::25                       0                       # What read queue length does an incoming req see
system.mem_ctr1.rdQLenPdf::26                       0                       # What read queue length does an incoming req see
system.mem_ctr1.rdQLenPdf::27                       0                       # What read queue length does an incoming req see
system.mem_ctr1.rdQLenPdf::28                       0                       # What read queue length does an incoming req see
system.mem_ctr1.rdQLenPdf::29                       0                       # What read queue length does an incoming req see
system.mem_ctr1.rdQLenPdf::30                       0                       # What read queue length does an incoming req see
system.mem_ctr1.rdQLenPdf::31                       0                       # What read queue length does an incoming req see
system.mem_ctr1.wrQLenPdf::0                        0                       # What write queue length does an incoming req see
system.mem_ctr1.wrQLenPdf::1                        0                       # What write queue length does an incoming req see
system.mem_ctr1.wrQLenPdf::2                        0                       # What write queue length does an incoming req see
system.mem_ctr1.wrQLenPdf::3                        0                       # What write queue length does an incoming req see
system.mem_ctr1.wrQLenPdf::4                        0                       # What write queue length does an incoming req see
system.mem_ctr1.wrQLenPdf::5                        0                       # What write queue length does an incoming req see
system.mem_ctr1.wrQLenPdf::6                        0                       # What write queue length does an incoming req see
system.mem_ctr1.wrQLenPdf::7                        0                       # What write queue length does an incoming req see
system.mem_ctr1.wrQLenPdf::8                        0                       # What write queue length does an incoming req see
system.mem_ctr1.wrQLenPdf::9                        0                       # What write queue length does an incoming req see
system.mem_ctr1.wrQLenPdf::10                       0                       # What write queue length does an incoming req see
system.mem_ctr1.wrQLenPdf::11                       0                       # What write queue length does an incoming req see
system.mem_ctr1.wrQLenPdf::12                       0                       # What write queue length does an incoming req see
system.mem_ctr1.wrQLenPdf::13                       0                       # What write queue length does an incoming req see
system.mem_ctr1.wrQLenPdf::14                       0                       # What write queue length does an incoming req see
system.mem_ctr1.wrQLenPdf::15                       0                       # What write queue length does an incoming req see
system.mem_ctr1.wrQLenPdf::16                       0                       # What write queue length does an incoming req see
system.mem_ctr1.wrQLenPdf::17                       0                       # What write queue length does an incoming req see
system.mem_ctr1.wrQLenPdf::18                       0                       # What write queue length does an incoming req see
system.mem_ctr1.wrQLenPdf::19                       0                       # What write queue length does an incoming req see
system.mem_ctr1.wrQLenPdf::20                       0                       # What write queue length does an incoming req see
system.mem_ctr1.wrQLenPdf::21                       0                       # What write queue length does an incoming req see
system.mem_ctr1.wrQLenPdf::22                       0                       # What write queue length does an incoming req see
system.mem_ctr1.wrQLenPdf::23                       0                       # What write queue length does an incoming req see
system.mem_ctr1.wrQLenPdf::24                       0                       # What write queue length does an incoming req see
system.mem_ctr1.wrQLenPdf::25                       0                       # What write queue length does an incoming req see
system.mem_ctr1.wrQLenPdf::26                       0                       # What write queue length does an incoming req see
system.mem_ctr1.wrQLenPdf::27                       0                       # What write queue length does an incoming req see
system.mem_ctr1.wrQLenPdf::28                       0                       # What write queue length does an incoming req see
system.mem_ctr1.wrQLenPdf::29                       0                       # What write queue length does an incoming req see
system.mem_ctr1.wrQLenPdf::30                       0                       # What write queue length does an incoming req see
system.mem_ctr1.wrQLenPdf::31                       0                       # What write queue length does an incoming req see
system.mem_ctr1.wrQLenPdf::32                       0                       # What write queue length does an incoming req see
system.mem_ctr1.wrQLenPdf::33                       0                       # What write queue length does an incoming req see
system.mem_ctr1.wrQLenPdf::34                       0                       # What write queue length does an incoming req see
system.mem_ctr1.wrQLenPdf::35                       0                       # What write queue length does an incoming req see
system.mem_ctr1.wrQLenPdf::36                       0                       # What write queue length does an incoming req see
system.mem_ctr1.wrQLenPdf::37                       0                       # What write queue length does an incoming req see
system.mem_ctr1.wrQLenPdf::38                       0                       # What write queue length does an incoming req see
system.mem_ctr1.wrQLenPdf::39                       0                       # What write queue length does an incoming req see
system.mem_ctr1.wrQLenPdf::40                       0                       # What write queue length does an incoming req see
system.mem_ctr1.wrQLenPdf::41                       0                       # What write queue length does an incoming req see
system.mem_ctr1.wrQLenPdf::42                       0                       # What write queue length does an incoming req see
system.mem_ctr1.wrQLenPdf::43                       0                       # What write queue length does an incoming req see
system.mem_ctr1.wrQLenPdf::44                       0                       # What write queue length does an incoming req see
system.mem_ctr1.wrQLenPdf::45                       0                       # What write queue length does an incoming req see
system.mem_ctr1.wrQLenPdf::46                       0                       # What write queue length does an incoming req see
system.mem_ctr1.wrQLenPdf::47                       0                       # What write queue length does an incoming req see
system.mem_ctr1.wrQLenPdf::48                       0                       # What write queue length does an incoming req see
system.mem_ctr1.wrQLenPdf::49                       0                       # What write queue length does an incoming req see
system.mem_ctr1.wrQLenPdf::50                       0                       # What write queue length does an incoming req see
system.mem_ctr1.wrQLenPdf::51                       0                       # What write queue length does an incoming req see
system.mem_ctr1.wrQLenPdf::52                       0                       # What write queue length does an incoming req see
system.mem_ctr1.wrQLenPdf::53                       0                       # What write queue length does an incoming req see
system.mem_ctr1.wrQLenPdf::54                       0                       # What write queue length does an incoming req see
system.mem_ctr1.wrQLenPdf::55                       0                       # What write queue length does an incoming req see
system.mem_ctr1.wrQLenPdf::56                       0                       # What write queue length does an incoming req see
system.mem_ctr1.wrQLenPdf::57                       0                       # What write queue length does an incoming req see
system.mem_ctr1.wrQLenPdf::58                       0                       # What write queue length does an incoming req see
system.mem_ctr1.wrQLenPdf::59                       0                       # What write queue length does an incoming req see
system.mem_ctr1.wrQLenPdf::60                       0                       # What write queue length does an incoming req see
system.mem_ctr1.wrQLenPdf::61                       0                       # What write queue length does an incoming req see
system.mem_ctr1.wrQLenPdf::62                       0                       # What write queue length does an incoming req see
system.mem_ctr1.wrQLenPdf::63                       0                       # What write queue length does an incoming req see
system.mem_ctr1.bytesPerActivate::samples         1632                       # Bytes accessed per row activation
system.mem_ctr1.bytesPerActivate::mean     703.294118                       # Bytes accessed per row activation
system.mem_ctr1.bytesPerActivate::gmean    503.129023                       # Bytes accessed per row activation
system.mem_ctr1.bytesPerActivate::stdev    395.577132                       # Bytes accessed per row activation
system.mem_ctr1.bytesPerActivate::0-127           205     12.56%     12.56% # Bytes accessed per row activation
system.mem_ctr1.bytesPerActivate::128-255          144      8.82%     21.38% # Bytes accessed per row activation
system.mem_ctr1.bytesPerActivate::256-383          136      8.33%     29.72% # Bytes accessed per row activation
system.mem_ctr1.bytesPerActivate::384-511           84      5.15%     34.87% # Bytes accessed per row activation
system.mem_ctr1.bytesPerActivate::512-639           29      1.78%     36.64% # Bytes accessed per row activation
system.mem_ctr1.bytesPerActivate::640-767           75      4.60%     41.24% # Bytes accessed per row activation
system.mem_ctr1.bytesPerActivate::768-895           21      1.29%     42.52% # Bytes accessed per row activation
system.mem_ctr1.bytesPerActivate::896-1023           37      2.27%     44.79% # Bytes accessed per row activation
system.mem_ctr1.bytesPerActivate::1024-1151          901     55.21%    100.00% # Bytes accessed per row activation
system.mem_ctr1.bytesPerActivate::total          1632                       # Bytes accessed per row activation
system.mem_ctr1.totQLat                     185787410                       # Total ticks spent queuing
system.mem_ctr1.totMemAccLat                522481160                       # Total ticks spent from burst creation until serviced by the DRAM
system.mem_ctr1.totBusLat                    89785000                       # Total ticks spent in databus transfers
system.mem_ctr1.avgQLat                      10346.24                       # Average queueing delay per DRAM burst
system.mem_ctr1.avgBusLat                     5000.00                       # Average bus latency per DRAM burst
system.mem_ctr1.avgMemAccLat                 29096.24                       # Average memory access latency per DRAM burst
system.mem_ctr1.avgRdBW                         24.62                       # Average DRAM read bandwidth in MiByte/s
system.mem_ctr1.avgWrBW                          0.00                       # Average achieved write bandwidth in MiByte/s
system.mem_ctr1.avgRdBWSys                      24.62                       # Average system read bandwidth in MiByte/s
system.mem_ctr1.avgWrBWSys                       0.00                       # Average system write bandwidth in MiByte/s
system.mem_ctr1.peakBW                       12800.00                       # Theoretical peak bandwidth in MiByte/s
system.mem_ctr1.busUtil                          0.19                       # Data bus utilization in percentage
system.mem_ctr1.busUtilRead                      0.19                       # Data bus utilization in percentage for reads
system.mem_ctr1.busUtilWrite                     0.00                       # Data bus utilization in percentage for writes
system.mem_ctr1.avgRdQLen                        1.00                       # Average read queue length when enqueuing
system.mem_ctr1.avgWrQLen                        0.00                       # Average write queue length when enqueuing
system.mem_ctr1.readRowHits                     16319                       # Number of row buffer hits during reads
system.mem_ctr1.writeRowHits                        0                       # Number of row buffer hits during writes
system.mem_ctr1.readRowHitRate                  90.88                       # Row buffer hit rate for reads
system.mem_ctr1.writeRowHitRate                   nan                       # Row buffer hit rate for writes
system.mem_ctr1.avgGap                     2599364.08                       # Average gap between requests
system.mem_ctr1.pageHitRate                     90.88                       # Row buffer hit rate, read and write combined
system.mem_ctr1_0.actEnergy                   5811960                       # Energy for activate commands per rank (pJ)
system.mem_ctr1_0.preEnergy                   3085335                       # Energy for precharge commands per rank (pJ)
system.mem_ctr1_0.readEnergy                 66144960                       # Energy for read commands per rank (pJ)
system.mem_ctr1_0.writeEnergy                       0                       # Energy for write commands per rank (pJ)
system.mem_ctr1_0.refreshEnergy          89122800.000000                       # Energy for refresh commands per rank (pJ)
system.mem_ctr1_0.actBackEnergy             128147400                       # Energy for active background per rank (pJ)
system.mem_ctr1_0.preBackEnergy               4716000                       # Energy for precharge background per rank (pJ)
system.mem_ctr1_0.actPowerDownEnergy        305126130                       # Energy for active power-down per rank (pJ)
system.mem_ctr1_0.prePowerDownEnergy         36619680                       # Energy for precharge power-down per rank (pJ)
system.mem_ctr1_0.selfRefreshEnergy       10954099200                       # Energy for self refresh per rank (pJ)
system.mem_ctr1_0.totalEnergy             11592873465                       # Total energy per rank (pJ)
system.mem_ctr1_0.averagePower             248.364385                       # Core power per rank (mW)
system.mem_ctr1_0.totalIdleTime           46383121914                       # Total Idle time Per DRAM Rank
system.mem_ctr1_0.memoryStateTime::IDLE       4789659                       # Time in different power states
system.mem_ctr1_0.memoryStateTime::REF       37760000                       # Time in different power states
system.mem_ctr1_0.memoryStateTime::SREF   45619069640                       # Time in different power states
system.mem_ctr1_0.memoryStateTime::PRE_PDN     95357593                       # Time in different power states
system.mem_ctr1_0.memoryStateTime::ACT      250761379                       # Time in different power states
system.mem_ctr1_0.memoryStateTime::ACT_PDN    669137130                       # Time in different power states
system.mem_ctr1_1.actEnergy                   5883360                       # Energy for activate commands per rank (pJ)
system.mem_ctr1_1.preEnergy                   3108105                       # Energy for precharge commands per rank (pJ)
system.mem_ctr1_1.readEnergy                 62068020                       # Energy for read commands per rank (pJ)
system.mem_ctr1_1.writeEnergy                       0                       # Energy for write commands per rank (pJ)
system.mem_ctr1_1.refreshEnergy          81747120.000000                       # Energy for refresh commands per rank (pJ)
system.mem_ctr1_1.actBackEnergy             119738760                       # Energy for active background per rank (pJ)
system.mem_ctr1_1.preBackEnergy               4903680                       # Energy for precharge background per rank (pJ)
system.mem_ctr1_1.actPowerDownEnergy        279830670                       # Energy for active power-down per rank (pJ)
system.mem_ctr1_1.prePowerDownEnergy         33808320                       # Energy for precharge power-down per rank (pJ)
system.mem_ctr1_1.selfRefreshEnergy       10972925760                       # Energy for self refresh per rank (pJ)
system.mem_ctr1_1.totalEnergy             11564013795                       # Total energy per rank (pJ)
system.mem_ctr1_1.averagePower             247.746099                       # Core power per rank (mW)
system.mem_ctr1_1.totalIdleTime           46401459771                       # Total Idle time Per DRAM Rank
system.mem_ctr1_1.memoryStateTime::IDLE       4699419                       # Time in different power states
system.mem_ctr1_1.memoryStateTime::REF       34634000                       # Time in different power states
system.mem_ctr1_1.memoryStateTime::SREF   45699814351                       # Time in different power states
system.mem_ctr1_1.memoryStateTime::PRE_PDN     88033460                       # Time in different power states
system.mem_ctr1_1.memoryStateTime::ACT      236033798                       # Time in different power states
system.mem_ctr1_1.memoryStateTime::ACT_PDN    613660373                       # Time in different power states
system.pwrStateResidencyTicks::UNDEFINED  46676875401                       # Cumulative time (in ticks) in various power states
system.cpu.dtb.walker.pwrStateResidencyTicks::UNDEFINED  46676875401                       # Cumulative time (in ticks) in various power states
system.cpu.dtb.rdAccesses                    13001706                       # TLB accesses on read requests
system.cpu.dtb.wrAccesses                     5665995                       # TLB accesses on write requests
system.cpu.dtb.rdMisses                           334                       # TLB misses on read requests
system.cpu.dtb.wrMisses                         28713                       # TLB misses on write requests
system.cpu.apic_clk_domain.clock                 5328                       # Clock period in ticks
system.cpu.interrupts.pwrStateResidencyTicks::UNDEFINED  46676875401                       # Cumulative time (in ticks) in various power states
system.cpu.itb.walker.pwrStateResidencyTicks::UNDEFINED  46676875401                       # Cumulative time (in ticks) in various power states
system.cpu.itb.rdAccesses                           0                       # TLB accesses on read requests
system.cpu.itb.wrAccesses                    41849984                       # TLB accesses on write requests
system.cpu.itb.rdMisses                             0                       # TLB misses on read requests
system.cpu.itb.wrMisses                            84                       # TLB misses on write requests
system.cpu.workload.numSyscalls                    29                       # Number of system calls
system.cpu.pwrStateResidencyTicks::ON     46676875401                       # Cumulative time (in ticks) in various power states
system.cpu.numCycles                        140170797                       # number of cpu cycles simulated
system.cpu.numWorkItemsStarted                      0                       # number of work items this cpu started
system.cpu.numWorkItemsCompleted                    0                       # number of work items this cpu completed
system.cpu.committedInsts                    26976551                       # Number of instructions committed
system.cpu.committedOps                      56086193                       # Number of ops (including micro ops) committed
system.cpu.num_int_alu_accesses              55759562                       # Number of integer alu accesses
system.cpu.num_fp_alu_accesses                      0                       # Number of float alu accesses
system.cpu.num_vec_alu_accesses                     0                       # Number of vector alu accesses
system.cpu.num_func_calls                        2695                       # number of times a function call or return occured
system.cpu.num_conditional_control_insts      4630293                       # number of instructions that are conditional controls
system.cpu.num_int_insts                     55759562                       # number of integer instructions
system.cpu.num_fp_insts                             0                       # number of float instructions
system.cpu.num_vec_insts                            0                       # number of vector instructions
system.cpu.num_int_register_reads           122077655                       # number of times the integer registers were read
system.cpu.num_int_register_writes           46846408                       # number of times the integer registers were written
system.cpu.num_fp_register_reads                    0                       # number of times the floating registers were read
system.cpu.num_fp_register_writes                   0                       # number of times the floating registers were written
system.cpu.num_vec_register_reads                   0                       # number of times the vector registers were read
system.cpu.num_vec_register_writes                  0                       # number of times the vector registers were written
system.cpu.num_cc_register_reads             27661470                       # number of times the CC registers were read
system.cpu.num_cc_register_writes            22180161                       # number of times the CC registers were written
system.cpu.num_mem_refs                      18667698                       # number of memory refs
system.cpu.num_load_insts                    13001704                       # Number of load instructions
system.cpu.num_store_insts                    5665994                       # Number of store instructions
system.cpu.num_idle_cycles                          0                       # Number of idle cycles
system.cpu.num_busy_cycles                  140170797                       # Number of busy cycles
system.cpu.not_idle_fraction                        1                       # Percentage of non-idle cycles
system.cpu.idle_fraction                            0                       # Percentage of idle cycles
system.cpu.Branches                           4635070                       # Number of branches fetched
system.cpu.op_class::No_OpClass                326389      0.58%      0.58% # Class of executed instruction
system.cpu.op_class::IntAlu                  36561207     65.19%     65.77% # Class of executed instruction
system.cpu.op_class::IntMult                      207      0.00%     65.77% # Class of executed instruction
system.cpu.op_class::IntDiv                    530692      0.95%     66.72% # Class of executed instruction
system.cpu.op_class::FloatAdd                       0      0.00%     66.72% # Class of executed instruction
system.cpu.op_class::FloatCmp                       0      0.00%     66.72% # Class of executed instruction
system.cpu.op_class::FloatCvt                       0      0.00%     66.72% # Class of executed instruction
system.cpu.op_class::FloatMult                      0      0.00%     66.72% # Class of executed instruction
system.cpu.op_class::FloatMultAcc                   0      0.00%     66.72% # Class of executed instruction
system.cpu.op_class::FloatDiv                       0      0.00%     66.72% # Class of executed instruction
system.cpu.op_class::FloatMisc                      0      0.00%     66.72% # Class of executed instruction
system.cpu.op_class::FloatSqrt                      0      0.00%     66.72% # Class of executed instruction
system.cpu.op_class::SimdAdd                        0      0.00%     66.72% # Class of executed instruction
system.cpu.op_class::SimdAddAcc                     0      0.00%     66.72% # Class of executed instruction
system.cpu.op_class::SimdAlu                        0      0.00%     66.72% # Class of executed instruction
system.cpu.op_class::SimdCmp                        0      0.00%     66.72% # Class of executed instruction
system.cpu.op_class::SimdCvt                        0      0.00%     66.72% # Class of executed instruction
system.cpu.op_class::SimdMisc                       0      0.00%     66.72% # Class of executed instruction
system.cpu.op_class::SimdMult                       0      0.00%     66.72% # Class of executed instruction
system.cpu.op_class::SimdMultAcc                    0      0.00%     66.72% # Class of executed instruction
system.cpu.op_class::SimdShift                      0      0.00%     66.72% # Class of executed instruction
system.cpu.op_class::SimdShiftAcc                   0      0.00%     66.72% # Class of executed instruction
system.cpu.op_class::SimdSqrt                       0      0.00%     66.72% # Class of executed instruction
system.cpu.op_class::SimdFloatAdd                   0      0.00%     66.72% # Class of executed instruction
system.cpu.op_class::SimdFloatAlu                   0      0.00%     66.72% # Class of executed instruction
system.cpu.op_class::SimdFloatCmp                   0      0.00%     66.72% # Class of executed instruction
system.cpu.op_class::SimdFloatCvt                   0      0.00%     66.72% # Class of executed instruction
system.cpu.op_class::SimdFloatDiv                   0      0.00%     66.72% # Class of executed instruction
system.cpu.op_class::SimdFloatMisc                  0      0.00%     66.72% # Class of executed instruction
system.cpu.op_class::SimdFloatMult                  0      0.00%     66.72% # Class of executed instruction
system.cpu.op_class::SimdFloatMultAcc               0      0.00%     66.72% # Class of executed instruction
system.cpu.op_class::SimdFloatSqrt                  0      0.00%     66.72% # Class of executed instruction
system.cpu.op_class::MemRead                 13001704     23.18%     89.90% # Class of executed instruction
system.cpu.op_class::MemWrite                 5665994     10.10%    100.00% # Class of executed instruction
system.cpu.op_class::FloatMemRead                   0      0.00%    100.00% # Class of executed instruction
system.cpu.op_class::FloatMemWrite                  0      0.00%    100.00% # Class of executed instruction
system.cpu.op_class::IprAccess                      0      0.00%    100.00% # Class of executed instruction
system.cpu.op_class::InstPrefetch                   0      0.00%    100.00% # Class of executed instruction
system.cpu.op_class::total                   56086193                       # Class of executed instruction
system.cpu.dcache.tags.pwrStateResidencyTicks::UNDEFINED  46676875401                       # Cumulative time (in ticks) in various power states
system.cpu.dcache.tags.replacements            659095                       # number of replacements
system.cpu.dcache.tags.tagsinuse          4071.047127                       # Cycle average of tags in use
system.cpu.dcache.tags.total_refs            18004510                       # Total number of references to valid blocks.
system.cpu.dcache.tags.sampled_refs            663191                       # Sample count of references to valid blocks.
system.cpu.dcache.tags.avg_refs             27.148303                       # Average number of references to valid blocks.
system.cpu.dcache.tags.warmup_cycle            154512                       # Cycle when the warmup percentage was hit.
system.cpu.dcache.tags.occ_blocks::cpu.data  4071.047127                       # Average occupied blocks per requestor
system.cpu.dcache.tags.occ_percent::cpu.data     0.993908                       # Average percentage of cache occupancy
system.cpu.dcache.tags.occ_percent::total     0.993908                       # Average percentage of cache occupancy
system.cpu.dcache.tags.occ_task_id_blocks::1024         4096                       # Occupied blocks per task id
system.cpu.dcache.tags.age_task_id_blocks_1024::0           26                       # Occupied blocks per task id
system.cpu.dcache.tags.age_task_id_blocks_1024::1          661                       # Occupied blocks per task id
system.cpu.dcache.tags.age_task_id_blocks_1024::2         1274                       # Occupied blocks per task id
system.cpu.dcache.tags.age_task_id_blocks_1024::3         2134                       # Occupied blocks per task id
system.cpu.dcache.tags.age_task_id_blocks_1024::4            1                       # Occupied blocks per task id
system.cpu.dcache.tags.occ_task_id_percent::1024            1                       # Percentage of cache occupancy per task id
system.cpu.dcache.tags.tag_accesses          37998593                       # Number of tag accesses
system.cpu.dcache.tags.data_accesses         37998593                       # Number of data accesses
system.cpu.dcache.pwrStateResidencyTicks::UNDEFINED  46676875401                       # Cumulative time (in ticks) in various power states
system.cpu.dcache.ReadReq_hits::cpu.data     12984297                       # number of ReadReq hits
system.cpu.dcache.ReadReq_hits::total        12984297                       # number of ReadReq hits
system.cpu.dcache.WriteReq_hits::cpu.data      5020213                       # number of WriteReq hits
system.cpu.dcache.WriteReq_hits::total        5020213                       # number of WriteReq hits
system.cpu.dcache.demand_hits::cpu.data      18004510                       # number of demand (read+write) hits
system.cpu.dcache.demand_hits::total         18004510                       # number of demand (read+write) hits
system.cpu.dcache.overall_hits::cpu.data     18004510                       # number of overall hits
system.cpu.dcache.overall_hits::total        18004510                       # number of overall hits
system.cpu.dcache.ReadReq_misses::cpu.data        17409                       # number of ReadReq misses
system.cpu.dcache.ReadReq_misses::total         17409                       # number of ReadReq misses
system.cpu.dcache.WriteReq_misses::cpu.data       645782                       # number of WriteReq misses
system.cpu.dcache.WriteReq_misses::total       645782                       # number of WriteReq misses
system.cpu.dcache.demand_misses::cpu.data       663191                       # number of demand (read+write) misses
system.cpu.dcache.demand_misses::total         663191                       # number of demand (read+write) misses
system.cpu.dcache.overall_misses::cpu.data       663191                       # number of overall misses
system.cpu.dcache.overall_misses::total        663191                       # number of overall misses
system.cpu.dcache.ReadReq_miss_latency::cpu.data    243587169                       # number of ReadReq miss cycles
system.cpu.dcache.ReadReq_miss_latency::total    243587169                       # number of ReadReq miss cycles
system.cpu.dcache.WriteReq_miss_latency::cpu.data   6515277534                       # number of WriteReq miss cycles
system.cpu.dcache.WriteReq_miss_latency::total   6515277534                       # number of WriteReq miss cycles
system.cpu.dcache.demand_miss_latency::cpu.data   6758864703                       # number of demand (read+write) miss cycles
system.cpu.dcache.demand_miss_latency::total   6758864703                       # number of demand (read+write) miss cycles
system.cpu.dcache.overall_miss_latency::cpu.data   6758864703                       # number of overall miss cycles
system.cpu.dcache.overall_miss_latency::total   6758864703                       # number of overall miss cycles
system.cpu.dcache.ReadReq_accesses::cpu.data     13001706                       # number of ReadReq accesses(hits+misses)
system.cpu.dcache.ReadReq_accesses::total     13001706                       # number of ReadReq accesses(hits+misses)
system.cpu.dcache.WriteReq_accesses::cpu.data      5665995                       # number of WriteReq accesses(hits+misses)
system.cpu.dcache.WriteReq_accesses::total      5665995                       # number of WriteReq accesses(hits+misses)
system.cpu.dcache.demand_accesses::cpu.data     18667701                       # number of demand (read+write) accesses
system.cpu.dcache.demand_accesses::total     18667701                       # number of demand (read+write) accesses
system.cpu.dcache.overall_accesses::cpu.data     18667701                       # number of overall (read+write) accesses
system.cpu.dcache.overall_accesses::total     18667701                       # number of overall (read+write) accesses
system.cpu.dcache.ReadReq_miss_rate::cpu.data     0.001339                       # miss rate for ReadReq accesses
system.cpu.dcache.ReadReq_miss_rate::total     0.001339                       # miss rate for ReadReq accesses
system.cpu.dcache.WriteReq_miss_rate::cpu.data     0.113975                       # miss rate for WriteReq accesses
system.cpu.dcache.WriteReq_miss_rate::total     0.113975                       # miss rate for WriteReq accesses
system.cpu.dcache.demand_miss_rate::cpu.data     0.035526                       # miss rate for demand accesses
system.cpu.dcache.demand_miss_rate::total     0.035526                       # miss rate for demand accesses
system.cpu.dcache.overall_miss_rate::cpu.data     0.035526                       # miss rate for overall accesses
system.cpu.dcache.overall_miss_rate::total     0.035526                       # miss rate for overall accesses
system.cpu.dcache.ReadReq_avg_miss_latency::cpu.data 13992.025332                       # average ReadReq miss latency
system.cpu.dcache.ReadReq_avg_miss_latency::total 13992.025332                       # average ReadReq miss latency
system.cpu.dcache.WriteReq_avg_miss_latency::cpu.data 10088.973576                       # average WriteReq miss latency
system.cpu.dcache.WriteReq_avg_miss_latency::total 10088.973576                       # average WriteReq miss latency
system.cpu.dcache.demand_avg_miss_latency::cpu.data 10191.430075                       # average overall miss latency
system.cpu.dcache.demand_avg_miss_latency::total 10191.430075                       # average overall miss latency
system.cpu.dcache.overall_avg_miss_latency::cpu.data 10191.430075                       # average overall miss latency
system.cpu.dcache.overall_avg_miss_latency::total 10191.430075                       # average overall miss latency
system.cpu.dcache.blocked_cycles::no_mshrs            0                       # number of cycles access was blocked
system.cpu.dcache.blocked_cycles::no_targets            0                       # number of cycles access was blocked
system.cpu.dcache.blocked::no_mshrs                 0                       # number of cycles access was blocked
system.cpu.dcache.blocked::no_targets               0                       # number of cycles access was blocked
system.cpu.dcache.avg_blocked_cycles::no_mshrs          nan                       # average number of cycles each access was blocked
system.cpu.dcache.avg_blocked_cycles::no_targets          nan                       # average number of cycles each access was blocked
system.cpu.dcache.writebacks::writebacks       658460                       # number of writebacks
system.cpu.dcache.writebacks::total            658460                       # number of writebacks
system.cpu.dcache.ReadReq_mshr_misses::cpu.data        17409                       # number of ReadReq MSHR misses
system.cpu.dcache.ReadReq_mshr_misses::total        17409                       # number of ReadReq MSHR misses
system.cpu.dcache.WriteReq_mshr_misses::cpu.data       645782                       # number of WriteReq MSHR misses
system.cpu.dcache.WriteReq_mshr_misses::total       645782                       # number of WriteReq MSHR misses
system.cpu.dcache.demand_mshr_misses::cpu.data       663191                       # number of demand (read+write) MSHR misses
system.cpu.dcache.demand_mshr_misses::total       663191                       # number of demand (read+write) MSHR misses
system.cpu.dcache.overall_mshr_misses::cpu.data       663191                       # number of overall MSHR misses
system.cpu.dcache.overall_mshr_misses::total       663191                       # number of overall MSHR misses
system.cpu.dcache.ReadReq_mshr_miss_latency::cpu.data    231992775                       # number of ReadReq MSHR miss cycles
system.cpu.dcache.ReadReq_mshr_miss_latency::total    231992775                       # number of ReadReq MSHR miss cycles
system.cpu.dcache.WriteReq_mshr_miss_latency::cpu.data   6085186722                       # number of WriteReq MSHR miss cycles
system.cpu.dcache.WriteReq_mshr_miss_latency::total   6085186722                       # number of WriteReq MSHR miss cycles
system.cpu.dcache.demand_mshr_miss_latency::cpu.data   6317179497                       # number of demand (read+write) MSHR miss cycles
system.cpu.dcache.demand_mshr_miss_latency::total   6317179497                       # number of demand (read+write) MSHR miss cycles
system.cpu.dcache.overall_mshr_miss_latency::cpu.data   6317179497                       # number of overall MSHR miss cycles
system.cpu.dcache.overall_mshr_miss_latency::total   6317179497                       # number of overall MSHR miss cycles
system.cpu.dcache.ReadReq_mshr_miss_rate::cpu.data     0.001339                       # mshr miss rate for ReadReq accesses
system.cpu.dcache.ReadReq_mshr_miss_rate::total     0.001339                       # mshr miss rate for ReadReq accesses
system.cpu.dcache.WriteReq_mshr_miss_rate::cpu.data     0.113975                       # mshr miss rate for WriteReq accesses
system.cpu.dcache.WriteReq_mshr_miss_rate::total     0.113975                       # mshr miss rate for WriteReq accesses
system.cpu.dcache.demand_mshr_miss_rate::cpu.data     0.035526                       # mshr miss rate for demand accesses
system.cpu.dcache.demand_mshr_miss_rate::total     0.035526                       # mshr miss rate for demand accesses
system.cpu.dcache.overall_mshr_miss_rate::cpu.data     0.035526                       # mshr miss rate for overall accesses
system.cpu.dcache.overall_mshr_miss_rate::total     0.035526                       # mshr miss rate for overall accesses
system.cpu.dcache.ReadReq_avg_mshr_miss_latency::cpu.data 13326.025332                       # average ReadReq mshr miss latency
system.cpu.dcache.ReadReq_avg_mshr_miss_latency::total 13326.025332                       # average ReadReq mshr miss latency
system.cpu.dcache.WriteReq_avg_mshr_miss_latency::cpu.data  9422.973576                       # average WriteReq mshr miss latency
system.cpu.dcache.WriteReq_avg_mshr_miss_latency::total  9422.973576                       # average WriteReq mshr miss latency
system.cpu.dcache.demand_avg_mshr_miss_latency::cpu.data  9525.430075                       # average overall mshr miss latency
system.cpu.dcache.demand_avg_mshr_miss_latency::total  9525.430075                       # average overall mshr miss latency
system.cpu.dcache.overall_avg_mshr_miss_latency::cpu.data  9525.430075                       # average overall mshr miss latency
system.cpu.dcache.overall_avg_mshr_miss_latency::total  9525.430075                       # average overall mshr miss latency
system.cpu.icache.tags.pwrStateResidencyTicks::UNDEFINED  46676875401                       # Cumulative time (in ticks) in various power states
system.cpu.icache.tags.replacements               791                       # number of replacements
system.cpu.icache.tags.tagsinuse           127.970535                       # Cycle average of tags in use
system.cpu.icache.tags.total_refs            41849065                       # Total number of references to valid blocks.
system.cpu.icache.tags.sampled_refs               919                       # Sample count of references to valid blocks.
system.cpu.icache.tags.avg_refs          45537.611534                       # Average number of references to valid blocks.
system.cpu.icache.tags.warmup_cycle             76590                       # Cycle when the warmup percentage was hit.
system.cpu.icache.tags.occ_blocks::cpu.inst   127.970535                       # Average occupied blocks per requestor
system.cpu.icache.tags.occ_percent::cpu.inst     0.999770                       # Average percentage of cache occupancy
system.cpu.icache.tags.occ_percent::total     0.999770                       # Average percentage of cache occupancy
system.cpu.icache.tags.occ_task_id_blocks::1024          128                       # Occupied blocks per task id
system.cpu.icache.tags.age_task_id_blocks_1024::0           91                       # Occupied blocks per task id
system.cpu.icache.tags.age_task_id_blocks_1024::1           12                       # Occupied blocks per task id
system.cpu.icache.tags.age_task_id_blocks_1024::2           17                       # Occupied blocks per task id
system.cpu.icache.tags.age_task_id_blocks_1024::4            8                       # Occupied blocks per task id
system.cpu.icache.tags.occ_task_id_percent::1024            1                       # Percentage of cache occupancy per task id
system.cpu.icache.tags.tag_accesses          83700887                       # Number of tag accesses
system.cpu.icache.tags.data_accesses         83700887                       # Number of data accesses
system.cpu.icache.pwrStateResidencyTicks::UNDEFINED  46676875401                       # Cumulative time (in ticks) in various power states
system.cpu.icache.ReadReq_hits::cpu.inst     41849065                       # number of ReadReq hits
system.cpu.icache.ReadReq_hits::total        41849065                       # number of ReadReq hits
system.cpu.icache.demand_hits::cpu.inst      41849065                       # number of demand (read+write) hits
system.cpu.icache.demand_hits::total         41849065                       # number of demand (read+write) hits
system.cpu.icache.overall_hits::cpu.inst     41849065                       # number of overall hits
system.cpu.icache.overall_hits::total        41849065                       # number of overall hits
system.cpu.icache.ReadReq_misses::cpu.inst          919                       # number of ReadReq misses
system.cpu.icache.ReadReq_misses::total           919                       # number of ReadReq misses
system.cpu.icache.demand_misses::cpu.inst          919                       # number of demand (read+write) misses
system.cpu.icache.demand_misses::total            919                       # number of demand (read+write) misses
system.cpu.icache.overall_misses::cpu.inst          919                       # number of overall misses
system.cpu.icache.overall_misses::total           919                       # number of overall misses
system.cpu.icache.ReadReq_miss_latency::cpu.inst     55531746                       # number of ReadReq miss cycles
system.cpu.icache.ReadReq_miss_latency::total     55531746                       # number of ReadReq miss cycles
system.cpu.icache.demand_miss_latency::cpu.inst     55531746                       # number of demand (read+write) miss cycles
system.cpu.icache.demand_miss_latency::total     55531746                       # number of demand (read+write) miss cycles
system.cpu.icache.overall_miss_latency::cpu.inst     55531746                       # number of overall miss cycles
system.cpu.icache.overall_miss_latency::total     55531746                       # number of overall miss cycles
system.cpu.icache.ReadReq_accesses::cpu.inst     41849984                       # number of ReadReq accesses(hits+misses)
system.cpu.icache.ReadReq_accesses::total     41849984                       # number of ReadReq accesses(hits+misses)
system.cpu.icache.demand_accesses::cpu.inst     41849984                       # number of demand (read+write) accesses
system.cpu.icache.demand_accesses::total     41849984                       # number of demand (read+write) accesses
system.cpu.icache.overall_accesses::cpu.inst     41849984                       # number of overall (read+write) accesses
system.cpu.icache.overall_accesses::total     41849984                       # number of overall (read+write) accesses
system.cpu.icache.ReadReq_miss_rate::cpu.inst     0.000022                       # miss rate for ReadReq accesses
system.cpu.icache.ReadReq_miss_rate::total     0.000022                       # miss rate for ReadReq accesses
system.cpu.icache.demand_miss_rate::cpu.inst     0.000022                       # miss rate for demand accesses
system.cpu.icache.demand_miss_rate::total     0.000022                       # miss rate for demand accesses
system.cpu.icache.overall_miss_rate::cpu.inst     0.000022                       # miss rate for overall accesses
system.cpu.icache.overall_miss_rate::total     0.000022                       # miss rate for overall accesses
system.cpu.icache.ReadReq_avg_miss_latency::cpu.inst 60426.274211                       # average ReadReq miss latency
system.cpu.icache.ReadReq_avg_miss_latency::total 60426.274211                       # average ReadReq miss latency
system.cpu.icache.demand_avg_miss_latency::cpu.inst 60426.274211                       # average overall miss latency
system.cpu.icache.demand_avg_miss_latency::total 60426.274211                       # average overall miss latency
system.cpu.icache.overall_avg_miss_latency::cpu.inst 60426.274211                       # average overall miss latency
system.cpu.icache.overall_avg_miss_latency::total 60426.274211                       # average overall miss latency
system.cpu.icache.blocked_cycles::no_mshrs            0                       # number of cycles access was blocked
system.cpu.icache.blocked_cycles::no_targets            0                       # number of cycles access was blocked
system.cpu.icache.blocked::no_mshrs                 0                       # number of cycles access was blocked
system.cpu.icache.blocked::no_targets               0                       # number of cycles access was blocked
system.cpu.icache.avg_blocked_cycles::no_mshrs          nan                       # average number of cycles each access was blocked
system.cpu.icache.avg_blocked_cycles::no_targets          nan                       # average number of cycles each access was blocked
system.cpu.icache.ReadReq_mshr_misses::cpu.inst          919                       # number of ReadReq MSHR misses
system.cpu.icache.ReadReq_mshr_misses::total          919                       # number of ReadReq MSHR misses
system.cpu.icache.demand_mshr_misses::cpu.inst          919                       # number of demand (read+write) MSHR misses
system.cpu.icache.demand_mshr_misses::total          919                       # number of demand (read+write) MSHR misses
system.cpu.icache.overall_mshr_misses::cpu.inst          919                       # number of overall MSHR misses
system.cpu.icache.overall_mshr_misses::total          919                       # number of overall MSHR misses
system.cpu.icache.ReadReq_mshr_miss_latency::cpu.inst     54919692                       # number of ReadReq MSHR miss cycles
system.cpu.icache.ReadReq_mshr_miss_latency::total     54919692                       # number of ReadReq MSHR miss cycles
system.cpu.icache.demand_mshr_miss_latency::cpu.inst     54919692                       # number of demand (read+write) MSHR miss cycles
system.cpu.icache.demand_mshr_miss_latency::total     54919692                       # number of demand (read+write) MSHR miss cycles
system.cpu.icache.overall_mshr_miss_latency::cpu.inst     54919692                       # number of overall MSHR miss cycles
system.cpu.icache.overall_mshr_miss_latency::total     54919692                       # number of overall MSHR miss cycles
system.cpu.icache.ReadReq_mshr_miss_rate::cpu.inst     0.000022                       # mshr miss rate for ReadReq accesses
system.cpu.icache.ReadReq_mshr_miss_rate::total     0.000022                       # mshr miss rate for ReadReq accesses
system.cpu.icache.demand_mshr_miss_rate::cpu.inst     0.000022                       # mshr miss rate for demand accesses
system.cpu.icache.demand_mshr_miss_rate::total     0.000022                       # mshr miss rate for demand accesses
system.cpu.icache.overall_mshr_miss_rate::cpu.inst     0.000022                       # mshr miss rate for overall accesses
system.cpu.icache.overall_mshr_miss_rate::total     0.000022                       # mshr miss rate for overall accesses
system.cpu.icache.ReadReq_avg_mshr_miss_latency::cpu.inst 59760.274211                       # average ReadReq mshr miss latency
system.cpu.icache.ReadReq_avg_mshr_miss_latency::total 59760.274211                       # average ReadReq mshr miss latency
system.cpu.icache.demand_avg_mshr_miss_latency::cpu.inst 59760.274211                       # average overall mshr miss latency
system.cpu.icache.demand_avg_mshr_miss_latency::total 59760.274211                       # average overall mshr miss latency
system.cpu.icache.overall_avg_mshr_miss_latency::cpu.inst 59760.274211                       # average overall mshr miss latency
system.cpu.icache.overall_avg_mshr_miss_latency::total 59760.274211                       # average overall mshr miss latency
system.l2bus.snoop_filter.tot_requests        1323996                       # Total number of requests made to the snoop filter.
system.l2bus.snoop_filter.hit_single_requests       659887                       # Number of requests hitting in the snoop filter with a single holder of the requested data.
system.l2bus.snoop_filter.hit_multi_requests            2                       # Number of requests hitting in the snoop filter with multiple (>1) holders of the requested data.
system.l2bus.snoop_filter.tot_snoops                0                       # Total number of snoops made to the snoop filter.
system.l2bus.snoop_filter.hit_single_snoops            0                       # Number of snoops hitting in the snoop filter with a single holder of the requested data.
system.l2bus.snoop_filter.hit_multi_snoops            0                       # Number of snoops hitting in the snoop filter with multiple (>1) holders of the requested data.
system.l2bus.pwrStateResidencyTicks::UNDEFINED  46676875401                       # Cumulative time (in ticks) in various power states
system.l2bus.trans_dist::ReadResp               18328                       # Transaction distribution
system.l2bus.trans_dist::WritebackDirty        658460                       # Transaction distribution
system.l2bus.trans_dist::CleanEvict              1426                       # Transaction distribution
system.l2bus.trans_dist::ReadExReq             645782                       # Transaction distribution
system.l2bus.trans_dist::ReadExResp            645782                       # Transaction distribution
system.l2bus.trans_dist::ReadSharedReq          18328                       # Transaction distribution
system.l2bus.pkt_count_system.cpu.icache.mem_side::system.l2cache.cpu_side         2629                       # Packet count per connected master and slave (bytes)
system.l2bus.pkt_count_system.cpu.dcache.mem_side::system.l2cache.cpu_side      1985477                       # Packet count per connected master and slave (bytes)
system.l2bus.pkt_count::total                 1988106                       # Packet count per connected master and slave (bytes)
system.l2bus.pkt_size_system.cpu.icache.mem_side::system.l2cache.cpu_side        58816                       # Cumulative packet size per connected master and slave (bytes)
system.l2bus.pkt_size_system.cpu.dcache.mem_side::system.l2cache.cpu_side     84585664                       # Cumulative packet size per connected master and slave (bytes)
system.l2bus.pkt_size::total                 84644480                       # Cumulative packet size per connected master and slave (bytes)
system.l2bus.snoops                                 0                       # Total snoops (count)
system.l2bus.snoopTraffic                           0                       # Total snoop traffic (bytes)
system.l2bus.snoop_fanout::samples             664110                       # Request fanout histogram
system.l2bus.snoop_fanout::mean              0.000005                       # Request fanout histogram
system.l2bus.snoop_fanout::stdev             0.002125                       # Request fanout histogram
system.l2bus.snoop_fanout::underflows               0      0.00%      0.00% # Request fanout histogram
system.l2bus.snoop_fanout::0                   664107    100.00%    100.00% # Request fanout histogram
system.l2bus.snoop_fanout::1                        3      0.00%    100.00% # Request fanout histogram
system.l2bus.snoop_fanout::2                        0      0.00%    100.00% # Request fanout histogram
system.l2bus.snoop_fanout::overflows                0      0.00%    100.00% # Request fanout histogram
system.l2bus.snoop_fanout::min_value                0                       # Request fanout histogram
system.l2bus.snoop_fanout::max_value                1                       # Request fanout histogram
system.l2bus.snoop_fanout::total               664110                       # Request fanout histogram
system.l2bus.reqLayer0.occupancy            879425028                       # Layer occupancy (ticks)
system.l2bus.reqLayer0.utilization                1.9                       # Layer utilization (%)
system.l2bus.respLayer0.occupancy              918081                       # Layer occupancy (ticks)
system.l2bus.respLayer0.utilization               0.0                       # Layer utilization (%)
system.l2bus.respLayer1.occupancy           662527809                       # Layer occupancy (ticks)
system.l2bus.respLayer1.utilization               1.4                       # Layer utilization (%)
system.l2cache.tags.pwrStateResidencyTicks::UNDEFINED  46676875401                       # Cumulative time (in ticks) in various power states
system.l2cache.tags.replacements                    0                       # number of replacements
system.l2cache.tags.tagsinuse            16813.541629                       # Cycle average of tags in use
system.l2cache.tags.total_refs                1306037                       # Total number of references to valid blocks.
system.l2cache.tags.sampled_refs                17957                       # Sample count of references to valid blocks.
system.l2cache.tags.avg_refs                72.731358                       # Average number of references to valid blocks.
system.l2cache.tags.warmup_cycle                69597                       # Cycle when the warmup percentage was hit.
system.l2cache.tags.occ_blocks::cpu.inst   568.374519                       # Average occupied blocks per requestor
system.l2cache.tags.occ_blocks::cpu.data 16245.167110                       # Average occupied blocks per requestor
system.l2cache.tags.occ_percent::cpu.inst     0.008673                       # Average percentage of cache occupancy
system.l2cache.tags.occ_percent::cpu.data     0.247882                       # Average percentage of cache occupancy
system.l2cache.tags.occ_percent::total       0.256554                       # Average percentage of cache occupancy
system.l2cache.tags.occ_task_id_blocks::1024        17957                       # Occupied blocks per task id
system.l2cache.tags.age_task_id_blocks_1024::0          102                       # Occupied blocks per task id
system.l2cache.tags.age_task_id_blocks_1024::1          536                       # Occupied blocks per task id
system.l2cache.tags.age_task_id_blocks_1024::2          235                       # Occupied blocks per task id
system.l2cache.tags.age_task_id_blocks_1024::4        17084                       # Occupied blocks per task id
system.l2cache.tags.occ_task_id_percent::1024     0.274002                       # Percentage of cache occupancy per task id
system.l2cache.tags.tag_accesses             10609909                       # Number of tag accesses
system.l2cache.tags.data_accesses            10609909                       # Number of data accesses
system.l2cache.pwrStateResidencyTicks::UNDEFINED  46676875401                       # Cumulative time (in ticks) in various power states
system.l2cache.WritebackDirty_hits::writebacks       658460                       # number of WritebackDirty hits
system.l2cache.WritebackDirty_hits::total       658460                       # number of WritebackDirty hits
system.l2cache.ReadExReq_hits::cpu.data        630049                       # number of ReadExReq hits
system.l2cache.ReadExReq_hits::total           630049                       # number of ReadExReq hits
system.l2cache.ReadSharedReq_hits::cpu.inst          141                       # number of ReadSharedReq hits
system.l2cache.ReadSharedReq_hits::cpu.data        15963                       # number of ReadSharedReq hits
system.l2cache.ReadSharedReq_hits::total        16104                       # number of ReadSharedReq hits
system.l2cache.demand_hits::cpu.inst              141                       # number of demand (read+write) hits
system.l2cache.demand_hits::cpu.data           646012                       # number of demand (read+write) hits
system.l2cache.demand_hits::total              646153                       # number of demand (read+write) hits
system.l2cache.overall_hits::cpu.inst             141                       # number of overall hits
system.l2cache.overall_hits::cpu.data          646012                       # number of overall hits
system.l2cache.overall_hits::total             646153                       # number of overall hits
system.l2cache.ReadExReq_misses::cpu.data        15733                       # number of ReadExReq misses
system.l2cache.ReadExReq_misses::total          15733                       # number of ReadExReq misses
system.l2cache.ReadSharedReq_misses::cpu.inst          778                       # number of ReadSharedReq misses
system.l2cache.ReadSharedReq_misses::cpu.data         1446                       # number of ReadSharedReq misses
system.l2cache.ReadSharedReq_misses::total         2224                       # number of ReadSharedReq misses
system.l2cache.demand_misses::cpu.inst            778                       # number of demand (read+write) misses
system.l2cache.demand_misses::cpu.data          17179                       # number of demand (read+write) misses
system.l2cache.demand_misses::total             17957                       # number of demand (read+write) misses
system.l2cache.overall_misses::cpu.inst           778                       # number of overall misses
system.l2cache.overall_misses::cpu.data         17179                       # number of overall misses
system.l2cache.overall_misses::total            17957                       # number of overall misses
system.l2cache.ReadExReq_miss_latency::cpu.data   1034117847                       # number of ReadExReq miss cycles
system.l2cache.ReadExReq_miss_latency::total   1034117847                       # number of ReadExReq miss cycles
system.l2cache.ReadSharedReq_miss_latency::cpu.inst     53013933                       # number of ReadSharedReq miss cycles
system.l2cache.ReadSharedReq_miss_latency::cpu.data    102971259                       # number of ReadSharedReq miss cycles
system.l2cache.ReadSharedReq_miss_latency::total    155985192                       # number of ReadSharedReq miss cycles
system.l2cache.demand_miss_latency::cpu.inst     53013933                       # number of demand (read+write) miss cycles
system.l2cache.demand_miss_latency::cpu.data   1137089106                       # number of demand (read+write) miss cycles
system.l2cache.demand_miss_latency::total   1190103039                       # number of demand (read+write) miss cycles
system.l2cache.overall_miss_latency::cpu.inst     53013933                       # number of overall miss cycles
system.l2cache.overall_miss_latency::cpu.data   1137089106                       # number of overall miss cycles
system.l2cache.overall_miss_latency::total   1190103039                       # number of overall miss cycles
system.l2cache.WritebackDirty_accesses::writebacks       658460                       # number of WritebackDirty accesses(hits+misses)
system.l2cache.WritebackDirty_accesses::total       658460                       # number of WritebackDirty accesses(hits+misses)
system.l2cache.ReadExReq_accesses::cpu.data       645782                       # number of ReadExReq accesses(hits+misses)
system.l2cache.ReadExReq_accesses::total       645782                       # number of ReadExReq accesses(hits+misses)
system.l2cache.ReadSharedReq_accesses::cpu.inst          919                       # number of ReadSharedReq accesses(hits+misses)
system.l2cache.ReadSharedReq_accesses::cpu.data        17409                       # number of ReadSharedReq accesses(hits+misses)
system.l2cache.ReadSharedReq_accesses::total        18328                       # number of ReadSharedReq accesses(hits+misses)
system.l2cache.demand_accesses::cpu.inst          919                       # number of demand (read+write) accesses
system.l2cache.demand_accesses::cpu.data       663191                       # number of demand (read+write) accesses
system.l2cache.demand_accesses::total          664110                       # number of demand (read+write) accesses
system.l2cache.overall_accesses::cpu.inst          919                       # number of overall (read+write) accesses
system.l2cache.overall_accesses::cpu.data       663191                       # number of overall (read+write) accesses
system.l2cache.overall_accesses::total         664110                       # number of overall (read+write) accesses
system.l2cache.ReadExReq_miss_rate::cpu.data     0.024363                       # miss rate for ReadExReq accesses
system.l2cache.ReadExReq_miss_rate::total     0.024363                       # miss rate for ReadExReq accesses
system.l2cache.ReadSharedReq_miss_rate::cpu.inst     0.846572                       # miss rate for ReadSharedReq accesses
system.l2cache.ReadSharedReq_miss_rate::cpu.data     0.083060                       # miss rate for ReadSharedReq accesses
system.l2cache.ReadSharedReq_miss_rate::total     0.121344                       # miss rate for ReadSharedReq accesses
system.l2cache.demand_miss_rate::cpu.inst     0.846572                       # miss rate for demand accesses
system.l2cache.demand_miss_rate::cpu.data     0.025904                       # miss rate for demand accesses
system.l2cache.demand_miss_rate::total       0.027039                       # miss rate for demand accesses
system.l2cache.overall_miss_rate::cpu.inst     0.846572                       # miss rate for overall accesses
system.l2cache.overall_miss_rate::cpu.data     0.025904                       # miss rate for overall accesses
system.l2cache.overall_miss_rate::total      0.027039                       # miss rate for overall accesses
system.l2cache.ReadExReq_avg_miss_latency::cpu.data 65729.221827                       # average ReadExReq miss latency
system.l2cache.ReadExReq_avg_miss_latency::total 65729.221827                       # average ReadExReq miss latency
system.l2cache.ReadSharedReq_avg_miss_latency::cpu.inst 68141.302057                       # average ReadSharedReq miss latency
system.l2cache.ReadSharedReq_avg_miss_latency::cpu.data 71211.105809                       # average ReadSharedReq miss latency
system.l2cache.ReadSharedReq_avg_miss_latency::total 70137.226619                       # average ReadSharedReq miss latency
system.l2cache.demand_avg_miss_latency::cpu.inst 68141.302057                       # average overall miss latency
system.l2cache.demand_avg_miss_latency::cpu.data 66190.645905                       # average overall miss latency
system.l2cache.demand_avg_miss_latency::total 66275.159492                       # average overall miss latency
system.l2cache.overall_avg_miss_latency::cpu.inst 68141.302057                       # average overall miss latency
system.l2cache.overall_avg_miss_latency::cpu.data 66190.645905                       # average overall miss latency
system.l2cache.overall_avg_miss_latency::total 66275.159492                       # average overall miss latency
system.l2cache.blocked_cycles::no_mshrs             0                       # number of cycles access was blocked
system.l2cache.blocked_cycles::no_targets            0                       # number of cycles access was blocked
system.l2cache.blocked::no_mshrs                    0                       # number of cycles access was blocked
system.l2cache.blocked::no_targets                  0                       # number of cycles access was blocked
system.l2cache.avg_blocked_cycles::no_mshrs          nan                       # average number of cycles each access was blocked
system.l2cache.avg_blocked_cycles::no_targets          nan                       # average number of cycles each access was blocked
system.l2cache.ReadExReq_mshr_misses::cpu.data        15733                       # number of ReadExReq MSHR misses
system.l2cache.ReadExReq_mshr_misses::total        15733                       # number of ReadExReq MSHR misses
system.l2cache.ReadSharedReq_mshr_misses::cpu.inst          778                       # number of ReadSharedReq MSHR misses
system.l2cache.ReadSharedReq_mshr_misses::cpu.data         1446                       # number of ReadSharedReq MSHR misses
system.l2cache.ReadSharedReq_mshr_misses::total         2224                       # number of ReadSharedReq MSHR misses
system.l2cache.demand_mshr_misses::cpu.inst          778                       # number of demand (read+write) MSHR misses
system.l2cache.demand_mshr_misses::cpu.data        17179                       # number of demand (read+write) MSHR misses
system.l2cache.demand_mshr_misses::total        17957                       # number of demand (read+write) MSHR misses
system.l2cache.overall_mshr_misses::cpu.inst          778                       # number of overall MSHR misses
system.l2cache.overall_mshr_misses::cpu.data        17179                       # number of overall MSHR misses
system.l2cache.overall_mshr_misses::total        17957                       # number of overall MSHR misses
system.l2cache.ReadExReq_mshr_miss_latency::cpu.data    929336067                       # number of ReadExReq MSHR miss cycles
system.l2cache.ReadExReq_mshr_miss_latency::total    929336067                       # number of ReadExReq MSHR miss cycles
system.l2cache.ReadSharedReq_mshr_miss_latency::cpu.inst     47832453                       # number of ReadSharedReq MSHR miss cycles
system.l2cache.ReadSharedReq_mshr_miss_latency::cpu.data     93340899                       # number of ReadSharedReq MSHR miss cycles
system.l2cache.ReadSharedReq_mshr_miss_latency::total    141173352                       # number of ReadSharedReq MSHR miss cycles
system.l2cache.demand_mshr_miss_latency::cpu.inst     47832453                       # number of demand (read+write) MSHR miss cycles
system.l2cache.demand_mshr_miss_latency::cpu.data   1022676966                       # number of demand (read+write) MSHR miss cycles
system.l2cache.demand_mshr_miss_latency::total   1070509419                       # number of demand (read+write) MSHR miss cycles
system.l2cache.overall_mshr_miss_latency::cpu.inst     47832453                       # number of overall MSHR miss cycles
system.l2cache.overall_mshr_miss_latency::cpu.data   1022676966                       # number of overall MSHR miss cycles
system.l2cache.overall_mshr_miss_latency::total   1070509419                       # number of overall MSHR miss cycles
system.l2cache.ReadExReq_mshr_miss_rate::cpu.data     0.024363                       # mshr miss rate for ReadExReq accesses
system.l2cache.ReadExReq_mshr_miss_rate::total     0.024363                       # mshr miss rate for ReadExReq accesses
system.l2cache.ReadSharedReq_mshr_miss_rate::cpu.inst     0.846572                       # mshr miss rate for ReadSharedReq accesses
system.l2cache.ReadSharedReq_mshr_miss_rate::cpu.data     0.083060                       # mshr miss rate for ReadSharedReq accesses
system.l2cache.ReadSharedReq_mshr_miss_rate::total     0.121344                       # mshr miss rate for ReadSharedReq accesses
system.l2cache.demand_mshr_miss_rate::cpu.inst     0.846572                       # mshr miss rate for demand accesses
system.l2cache.demand_mshr_miss_rate::cpu.data     0.025904                       # mshr miss rate for demand accesses
system.l2cache.demand_mshr_miss_rate::total     0.027039                       # mshr miss rate for demand accesses
system.l2cache.overall_mshr_miss_rate::cpu.inst     0.846572                       # mshr miss rate for overall accesses
system.l2cache.overall_mshr_miss_rate::cpu.data     0.025904                       # mshr miss rate for overall accesses
system.l2cache.overall_mshr_miss_rate::total     0.027039                       # mshr miss rate for overall accesses
system.l2cache.ReadExReq_avg_mshr_miss_latency::cpu.data 59069.221827                       # average ReadExReq mshr miss latency
system.l2cache.ReadExReq_avg_mshr_miss_latency::total 59069.221827                       # average ReadExReq mshr miss latency
system.l2cache.ReadSharedReq_avg_mshr_miss_latency::cpu.inst 61481.302057                       # average ReadSharedReq mshr miss latency
system.l2cache.ReadSharedReq_avg_mshr_miss_latency::cpu.data 64551.105809                       # average ReadSharedReq mshr miss latency
system.l2cache.ReadSharedReq_avg_mshr_miss_latency::total 63477.226619                       # average ReadSharedReq mshr miss latency
system.l2cache.demand_avg_mshr_miss_latency::cpu.inst 61481.302057                       # average overall mshr miss latency
system.l2cache.demand_avg_mshr_miss_latency::cpu.data 59530.645905                       # average overall mshr miss latency
system.l2cache.demand_avg_mshr_miss_latency::total 59615.159492                       # average overall mshr miss latency
system.l2cache.overall_avg_mshr_miss_latency::cpu.inst 61481.302057                       # average overall mshr miss latency
system.l2cache.overall_avg_mshr_miss_latency::cpu.data 59530.645905                       # average overall mshr miss latency
system.l2cache.overall_avg_mshr_miss_latency::total 59615.159492                       # average overall mshr miss latency
system.membus.snoop_filter.tot_requests         17957                       # Total number of requests made to the snoop filter.
system.membus.snoop_filter.hit_single_requests            0                       # Number of requests hitting in the snoop filter with a single holder of the requested data.
system.membus.snoop_filter.hit_multi_requests            0                       # Number of requests hitting in the snoop filter with multiple (>1) holders of the requested data.
system.membus.snoop_filter.tot_snoops               0                       # Total number of snoops made to the snoop filter.
system.membus.snoop_filter.hit_single_snoops            0                       # Number of snoops hitting in the snoop filter with a single holder of the requested data.
system.membus.snoop_filter.hit_multi_snoops            0                       # Number of snoops hitting in the snoop filter with multiple (>1) holders of the requested data.
system.membus.pwrStateResidencyTicks::UNDEFINED  46676875401                       # Cumulative time (in ticks) in various power states
system.membus.trans_dist::ReadResp               2224                       # Transaction distribution
system.membus.trans_dist::ReadExReq             15733                       # Transaction distribution
system.membus.trans_dist::ReadExResp            15733                       # Transaction distribution
system.membus.trans_dist::ReadSharedReq          2224                       # Transaction distribution
system.membus.pkt_count_system.l2cache.mem_side::system.mem_ctr1.port        35914                       # Packet count per connected master and slave (bytes)
system.membus.pkt_count_system.l2cache.mem_side::total        35914                       # Packet count per connected master and slave (bytes)
system.membus.pkt_count::total                  35914                       # Packet count per connected master and slave (bytes)
system.membus.pkt_size_system.l2cache.mem_side::system.mem_ctr1.port      1149248                       # Cumulative packet size per connected master and slave (bytes)
system.membus.pkt_size_system.l2cache.mem_side::total      1149248                       # Cumulative packet size per connected master and slave (bytes)
system.membus.pkt_size::total                 1149248                       # Cumulative packet size per connected master and slave (bytes)
system.membus.snoops                                0                       # Total snoops (count)
system.membus.snoopTraffic                          0                       # Total snoop traffic (bytes)
system.membus.snoop_fanout::samples             17957                       # Request fanout histogram
system.membus.snoop_fanout::mean                    0                       # Request fanout histogram
system.membus.snoop_fanout::stdev                   0                       # Request fanout histogram
system.membus.snoop_fanout::underflows              0      0.00%      0.00% # Request fanout histogram
system.membus.snoop_fanout::0                   17957    100.00%    100.00% # Request fanout histogram
system.membus.snoop_fanout::1                       0      0.00%    100.00% # Request fanout histogram
system.membus.snoop_fanout::overflows               0      0.00%    100.00% # Request fanout histogram
system.membus.snoop_fanout::min_value               0                       # Request fanout histogram
system.membus.snoop_fanout::max_value               0                       # Request fanout histogram
system.membus.snoop_fanout::total               17957                       # Request fanout histogram
system.membus.reqLayer2.occupancy             5979681                       # Layer occupancy (ticks)
system.membus.reqLayer2.utilization               0.0                       # Layer utilization (%)
system.membus.respLayer0.occupancy           33416553                       # Layer occupancy (ticks)
system.membus.respLayer0.utilization              0.1                       # Layer utilization (%)

---------- End Simulation Statistics   ----------
